Version 4.1
SHEET 1 880 680
WIRE 160 -96 64 -96
WIRE 160 0 160 -96
WIRE 64 16 64 -16
WIRE 64 112 -16 112
WIRE 160 112 160 80
WIRE 240 160 160 160
WIRE 64 192 64 112
WIRE 112 192 64 192
WIRE 240 208 240 160
WIRE 240 208 160 208
WIRE -16 224 -16 192
WIRE 160 256 160 208
FLAG 64 16 0
FLAG -16 224 0
FLAG 160 256 0
SYMBOL nmos4 112 112 R0
SYMATTR InstName M1
SYMATTR Value CMOSN
SYMATTR Value2 l=480n w=466n
SYMBOL voltage 64 -112 R0
WINDOW 123 0 0 Left 0
WINDOW 39 0 0 Left 0
SYMATTR InstName V1
SYMATTR Value 1.8
SYMBOL voltage -16 96 R0
WINDOW 123 24 124 Left 2
WINDOW 39 0 0 Left 0
SYMATTR Value2 AC 1
SYMATTR InstName V2
SYMATTR Value SINE(0.9 50m 1k)
SYMBOL res 144 -16 R0
SYMATTR InstName R1
SYMATTR Value 1k
TEXT 392 64 Left 2 !.lib tsmc018.lib
TEXT -48 280 Left 2 !.op
TEXT 408 104 Left 2 ;.tran 5m
TEXT 376 176 Left 2 ;.ac dec 20 0.1 1T
